/*--------------------------------*- C++ -*----------------------------------*\
  =========                 |
  \\      /  F ield         | OpenFOAM: The Open Source CFD Toolbox
   \\    /   O peration     | Website:  https://openfoam.org
    \\  /    A nd           | Version:  7
     \\/     M anipulation  |
\*---------------------------------------------------------------------------*/
FoamFile
{
    version     2.0;
    format      ascii;
    class       dictionary;
    object      blockMeshDict;
}
// * * * * * * * * * * * * * * * * * * * * * * * * * * * * * * * * * * * * * //

convertToMeters 1e-3;

vertices
(
    (0    25  0  )
    (20   25  0  )
    (20   0   0  )
    (320  0   0  )
    (320  25  0  )
    (320  50  0  )
    (20   50  0  )
    (0    50  0  )
    (0    25  0.1)
    (20   25  0.1)
    (20   0   0.1)
    (320  0   0.1)
    (320  25  0.1)
    (320  50  0.1)
    (20   50  0.1)
    (0    50  0.1)
);

blocks
(
    hex (0 1 6 7 8 9 14 15) (18 50 1) simpleGrading (2 2 1)
    hex (2 3 4 1 10 11 12 9) (200 30 1) simpleGrading (2 2 1)
    hex (1 4 5 6 9 12 13 14) (200 50 1) simpleGrading (2 2 1)
);

edges
(
);

boundary
(
    inletPatch
    {
        type patch;
        faces
        (
            (0 7 15 8)
        );
    }
    fixedWalls
    {
        type wall;
        faces
        (
            (6 7 15 14)
            (6 14 13 5)
            (2 3 11 10)
            (1 2 10 9)
            (0 1 9 8)
        );
    }
    frontAndBack
    {
        type empty;
        faces
        (
            (7 6 1 0)
            (6 5 4 1)
            (1 4 3 2)
            (15 8 9 14)
            (14 9 12 13)
            (9 10 11 12)
        );
    }
    outletPatch
    {
        type patch;
        faces
        (
            (5 13 12 4)
            (4 12 11 3)
        );
    }
);

mergePatchPairs
(
);

// ************************************************************************* //
